Version 4
SHEET 1 944 1600
WIRE 288 -48 224 -48
WIRE 416 -48 352 -48
WIRE 320 48 320 32
WIRE 80 64 16 64
WIRE 192 64 160 64
WIRE 224 64 224 -48
WIRE 224 64 192 64
WIRE 288 64 224 64
WIRE 384 80 352 80
WIRE 416 80 416 -48
WIRE 416 80 384 80
WIRE 480 80 416 80
WIRE 288 96 256 96
WIRE 256 128 256 96
WIRE 320 128 320 112
WIRE 80 160 64 160
WIRE 192 160 192 64
WIRE 192 160 160 160
WIRE 64 208 64 160
WIRE 384 208 384 80
WIRE 384 208 64 208
WIRE 64 256 64 208
WIRE 64 256 -208 256
WIRE 288 272 224 272
WIRE 416 272 352 272
WIRE 320 368 320 352
WIRE 64 384 64 256
WIRE 80 384 64 384
WIRE 192 384 160 384
WIRE 224 384 224 272
WIRE 224 384 192 384
WIRE 288 384 224 384
WIRE 384 400 352 400
WIRE 416 400 416 272
WIRE 416 400 384 400
WIRE 480 400 416 400
WIRE -208 416 -208 256
WIRE -160 416 -208 416
WIRE -64 416 -96 416
WIRE 288 416 256 416
WIRE -160 448 -176 448
WIRE -80 448 -96 448
WIRE 256 448 256 416
WIRE 320 448 320 432
WIRE -160 480 -192 480
WIRE 80 480 -96 480
WIRE 192 480 192 384
WIRE 192 480 160 480
WIRE 640 496 640 464
WIRE -176 512 -176 448
WIRE -160 512 -176 512
WIRE -64 512 -96 512
WIRE -176 576 -176 512
WIRE -128 576 -176 576
WIRE -80 576 -80 448
WIRE -80 576 -128 576
WIRE 80 576 64 576
WIRE 192 576 192 480
WIRE 192 576 160 576
WIRE -128 592 -128 576
WIRE 640 608 640 576
WIRE 736 608 640 608
WIRE 16 624 16 64
WIRE 16 624 -176 624
WIRE 64 624 64 576
WIRE 64 624 16 624
WIRE 384 624 384 400
WIRE 384 624 64 624
WIRE 736 624 736 608
WIRE 640 640 640 608
WIRE 288 688 224 688
WIRE 416 688 352 688
WIRE -176 736 -176 624
WIRE -160 736 -176 736
WIRE -64 736 -96 736
WIRE 640 752 640 720
WIRE -160 768 -176 768
WIRE -80 768 -96 768
WIRE 320 784 320 768
WIRE -208 800 -208 416
WIRE -160 800 -208 800
WIRE 80 800 -96 800
WIRE 192 800 160 800
WIRE 224 800 224 688
WIRE 224 800 192 800
WIRE 288 800 224 800
WIRE 384 816 352 816
WIRE 416 816 416 688
WIRE 416 816 384 816
WIRE 480 816 416 816
WIRE -176 832 -176 768
WIRE -160 832 -176 832
WIRE -64 832 -96 832
WIRE 288 832 256 832
WIRE 256 864 256 832
WIRE 320 864 320 848
WIRE -176 896 -176 832
WIRE -128 896 -176 896
WIRE -80 896 -80 768
WIRE -80 896 -128 896
WIRE 80 896 64 896
WIRE 192 896 192 800
WIRE 192 896 160 896
WIRE -128 912 -128 896
WIRE -192 944 -192 480
WIRE 64 944 64 896
WIRE 64 944 -192 944
WIRE 384 944 384 816
WIRE 384 944 64 944
FLAG 736 624 0
FLAG 640 464 Vp
FLAG 640 752 Vn
FLAG 320 32 Vp
FLAG 320 352 Vp
FLAG 320 768 Vp
FLAG 320 864 Vn
FLAG 320 448 Vn
FLAG 320 128 Vn
FLAG 256 448 0
FLAG 256 128 0
FLAG 256 864 0
FLAG 480 80 x
IOPIN 480 80 Out
FLAG 480 400 yn
IOPIN 480 400 Out
FLAG -128 592 0
FLAG -64 416 Vn
FLAG -64 512 Vp
FLAG -128 912 0
FLAG -64 736 Vn
FLAG -64 832 Vp
FLAG 480 816 z
IOPIN 480 816 Out
SYMBOL OpAmps/UniversalOpAmp 320 80 R0
SYMATTR InstName U1a
SYMBOL OpAmps/UniversalOpAmp 320 400 R0
SYMATTR InstName U1b
SYMBOL OpAmps/UniversalOpAmp 320 816 R0
SYMATTR InstName U2a
SYMBOL Cap 352 -64 R90
WINDOW 0 0 32 VBottom 2
WINDOW 3 32 32 VTop 2
SYMATTR InstName C1
SYMATTR Value {Cint}
SYMBOL Cap 352 256 R90
WINDOW 0 0 32 VBottom 2
WINDOW 3 32 32 VTop 2
SYMATTR InstName C2
SYMATTR Value {Cint}
SYMBOL Cap 352 672 R90
WINDOW 0 0 32 VBottom 2
WINDOW 3 32 32 VTop 2
SYMATTR InstName C3
SYMATTR Value {Cint}
SYMBOL voltage 640 480 R0
SYMATTR InstName V1
SYMATTR Value {Vrail}
SYMBOL voltage 640 624 R0
SYMATTR InstName V2
SYMATTR Value {Vrail}
SYMBOL Res 176 48 R90
WINDOW 0 0 56 VBottom 2
WINDOW 3 32 56 VTop 2
SYMATTR InstName R1
SYMATTR Value {Rbase/sigma}
SYMBOL Res 176 144 R90
WINDOW 0 0 56 VBottom 2
WINDOW 3 32 56 VTop 2
SYMATTR InstName R2
SYMATTR Value {Rbase/sigma}
SYMBOL Res 176 368 R90
WINDOW 0 0 56 VBottom 2
WINDOW 3 32 56 VTop 2
SYMATTR InstName R3
SYMATTR Value {Rbase/r}
SYMBOL Res 176 464 R90
WINDOW 0 0 56 VBottom 2
WINDOW 3 32 56 VTop 2
SYMATTR InstName R4
SYMATTR Value {Rbase/Mfac}
SYMBOL Res 176 560 R90
WINDOW 0 0 56 VBottom 2
WINDOW 3 32 56 VTop 2
SYMATTR InstName R5
SYMATTR Value {Rbase}
SYMBOL ./AD633 -128 464 R0
SYMATTR InstName U3
SYMBOL Res 176 784 R90
WINDOW 0 0 56 VBottom 2
WINDOW 3 32 56 VTop 2
SYMATTR InstName R6
SYMATTR Value {Rbase/Mfac}
SYMBOL Res 176 880 R90
WINDOW 0 0 56 VBottom 2
WINDOW 3 32 56 VTop 2
SYMATTR InstName R7
SYMATTR Value {Rbase/b}
SYMBOL ./AD633 -128 784 R0
SYMATTR InstName U4
TEXT -184 984 Left 2 !.include ad633.cir
TEXT -184 1032 Left 2 !.param Rbase=1Meg sigma=10 r=28 b=8/3 Cint=0.1u Vrail=15 Mfac=10
TEXT -184 1080 Left 2 !.ic V(x)=1.0 V(yn)=-1.0 V(z)=1.0
TEXT -184 1128 Left 2 !.tran 0 40 0 0.01
TEXT -184 1176 Left 2 !.plot tran V(x) -V(yn) V(z)
